Version 4
SHEET 1 1192 680
WIRE 512 -240 368 -240
WIRE 144 -208 80 -208
WIRE 144 -176 144 -208
WIRE 368 -176 368 -240
WIRE 304 16 0 16
WIRE 416 16 384 16
WIRE -512 48 -656 48
WIRE -160 48 -448 48
WIRE -48 48 -80 48
WIRE 512 64 512 -240
WIRE 80 80 80 -208
WIRE -48 96 -48 48
WIRE 0 96 0 16
WIRE 0 96 -48 96
WIRE 48 96 0 96
WIRE 448 112 112 112
WIRE 48 128 0 128
WIRE -160 208 -304 208
WIRE 0 208 0 128
WIRE 0 208 -80 208
WIRE 512 224 512 160
WIRE 672 224 512 224
WIRE 1040 224 928 224
WIRE 1136 224 1040 224
WIRE 416 240 416 16
WIRE 512 240 512 224
WIRE 512 240 416 240
FLAG -656 128 0
FLAG -304 288 0
FLAG 80 144 0
FLAG 368 -96 0
FLAG 144 -96 0
FLAG 800 320 0
FLAG 1040 288 0
FLAG 1136 304 0
SYMBOL Opamps\\LT1395 80 48 R0
SYMATTR InstName U1
SYMBOL res -64 192 R90
WINDOW 0 0 56 VBottom 2
WINDOW 3 32 56 VTop 2
SYMATTR InstName R1
SYMATTR Value 1000
SYMBOL res -64 32 R90
WINDOW 0 0 56 VBottom 2
WINDOW 3 32 56 VTop 2
SYMATTR InstName R2
SYMATTR Value 1000
SYMBOL res 400 0 R90
WINDOW 0 0 56 VBottom 2
WINDOW 3 32 56 VTop 2
SYMATTR InstName R3
SYMATTR Value 1000
SYMBOL npn 448 64 R0
SYMATTR InstName Q1
SYMBOL voltage -656 32 R0
WINDOW 3 24 152 Left 2
WINDOW 123 24 124 Left 2
WINDOW 39 0 0 Left 0
SYMATTR Value SINE(0 0.1 1000000)
SYMATTR InstName V1
SYMBOL voltage -304 192 R0
WINDOW 123 0 0 Left 0
WINDOW 39 0 0 Left 0
SYMATTR InstName V2
SYMATTR Value 5
SYMBOL voltage 144 -192 R0
WINDOW 123 0 0 Left 0
WINDOW 39 0 0 Left 0
SYMATTR InstName V3
SYMATTR Value 12
SYMBOL voltage 368 -192 R0
WINDOW 123 0 0 Left 0
WINDOW 39 0 0 Left 0
SYMATTR InstName V4
SYMATTR Value 9
SYMBOL PowerProducts\\LT1117-3.3 800 224 R0
SYMATTR InstName U2
SYMBOL res 1120 208 R0
SYMATTR InstName R4
SYMATTR Value 68
SYMBOL cap 1024 224 R0
SYMATTR InstName C1
SYMATTR Value 1000n
SYMBOL cap -512 32 M90
WINDOW 0 0 32 VBottom 2
WINDOW 3 32 32 VTop 2
SYMATTR InstName C2
SYMATTR Value 100µ
TEXT -280 -104 Left 2 !.tran 0 0.01 0
